/*--------------------------------*- C++ -*----------------------------------*\
| =========                 |                                                 |
| \\      /  F ield         | OpenFOAM: The Open Source CFD Toolbox           |
|  \\    /   O peration     | Version:  v1806                                 |
|   \\  /    A nd           | Web:      www.OpenFOAM.com                      |
|    \\/     M anipulation  |                                                 |
\*---------------------------------------------------------------------------*/
FoamFile
{
    version     2.0;
    format      ascii;
    class       dictionary;
    object      decomposeParDict;
}
// * * * * * * * * * * * * * * * * * * * * * * * * * * * * * * * * * * * * * //

numberOfSubdomains 4;       // cantidad de cores a utilizar

method          scotch;     // especifica metodo de paralizacion

coeffs
{
    n           (1 4 1);    // la multiplicacion de los tres numeros debe
                            // coincidir con el numberOfSubdomains.
    //delta       0.001; // default=0.001
    //order       xyz;   // default=xzy
}

distributed     no;

roots           ( );


// ************************************************************************* //
